gridlabd_helics_example/powerflow_4node.glm
#set profiler=1

module tape;
module powerflow;
module generators;
module residential;
module connection;

object helics_msg {
	name helics;
	parent inv;
	configure customized_config.json;
}


class player {
    double value;
}


clock {
	timestamp '2021-12-25 00:00:00';
	stoptime '2021-12-25 23:59:00';
	timezone PST8;
}
// IEEE 4 Node Feeder: Balanced step-down delta-delta

object line_configuration {
	name LC300;
	conductor_A OH100;
	conductor_B OH100;
	conductor_C OH100;
	conductor_N OH101;
	spacing LS200;
}
object line_spacing {
	name LS200;
	distance_AB 2.5;
	distance_BC 4.5;
	distance_AC 7.0;
	distance_AN 5.656854;
	distance_BN 4.272002;
	distance_CN 5.0;
}
object overhead_line_conductor {
	name OH100;
	geometric_mean_radius 0.0244;
	resistance 0.306;
}
object overhead_line_conductor {
	name OH101;
	geometric_mean_radius 0.00814;
	resistance 0.592;
}
object transformer_configuration {
	name XFC400;
	connect_type 2;
	power_rating 6000;
	primary_voltage 12470;
	secondary_voltage 4160;
	resistance 0.01;
	reactance 0.06;
}
object transformer_configuration {
	name PoleTop;
	connect_type SINGLE_PHASE_CENTER_TAPPED;
	power_rating 400;
	powerC_rating 400;
	primary_voltage 2400;
	secondary_voltage 120;
	resistance 0.01;
	reactance 0.06;
}
object triplex_line_configuration {
      name triplex_line_config;
      conductor_1 Name_1_0_AA_triplex;
      conductor_2 Name_1_0_AA_triplex;
      conductor_N Name_1_0_AA_triplex;
      insulation_thickness 0.1;
      diameter 0.4;
}
object triplex_line_conductor {
      name Name_1_0_AA_triplex;
      resistance 0.57;
      geometric_mean_radius 0.0111;
}

object node {
	name Node1;
	bustype SWING;
	phases A|B|C;
	voltage_A +7199.558+0.000j;
	voltage_B -3599.779-6235.000j;
	voltage_C -3599.779+6235.000j;
	nominal_voltage 7199.558;
}

object overhead_line {
	name Link12;
	phases A|B|C;
	from Node1;
	to Node2;
	length 2000;
	configuration LC300;
	nominal_voltage 7199.558;
}

object node {
	name Node2;
	phases A|B|C;
	voltage_A +7199.558+0.000j;
	voltage_B -3599.779-6235.000j;
	voltage_C -3599.779+6235.000j;
	nominal_voltage 7199.558;
}

object transformer {
	name substation_transformer;
	phases A|B|C;
	from Node2;
	to substation_meter;
	configuration XFC400;
}

object meter {
      name substation_meter;
      phases ABCN;
      nominal_voltage 4160;
}

object overhead_line {
	name branch;
	phases A|B|C;
	from substation_meter;
	to Node3;
	length 2000;
	configuration LC300;
	nominal_voltage 2401.777;
}
object node {
	name Node3;
	phases A|B|C;
	voltage_A +2401.777+0.000j;
	voltage_B -1200.889-2080.000j;
	voltage_C -1200.889+2080.000j;
	nominal_voltage 4160;
}

object overhead_line {
	name branch1;
	phases A|B|C;
	from Node3;
	to Node4;
	length 2000;
	configuration LC300;
	nominal_voltage 4160;
}

object node {
	name Node4;
	phases A|B|C;
	voltage_A +2401.777+0.000j;
	voltage_B -1200.889-2080.000j;
	voltage_C -1200.889+2080.000j;
	nominal_voltage 4160;
}


//// here are the stuff I added

object transformer{
	name split_boi;
	phases CS;
	from Node4;
	to mr_meter1;
	configuration PoleTop;
}


object triplex_meter{
	name mr_meter1;
	phases CS;
	nominal_voltage 120;
}

object inverter {
	name inv;
	parent mr_meter1;
	inverter_type FOUR_QUADRANT;
	generator_status ONLINE;
	generator_mode SUPPLY_DRIVEN;
	phases CS;
	rated_power 10;
	inverter_efficiency 0.9;
	power_factor 1;
	object battery {
		name inv_batt;
		battery_type LI_ION;
		use_internal_battery_model TRUE;
		battery_capacity 10000;
		state_of_charge 1.0;
	};
}

// object triplex_load {
// 	name x;
// 	phases CS;
// 	parent mr_meter1;
// 	constant_power_12 1000;
// 	nominal_voltage 120;
// 	helics_subscribe "x" constant_power 12;
// }

// object house {
// 	name house1;
// 	// no need to specify phase used, inherits parent's phase
// //  panel.power_factor 0.98;
// 	floor_area random.uniform(2500,100) sf;
// 	parent mr_meter1;

// }

// object waterheater {
// 	parent house1; // heater is inside the house
// 	name my_waterheater;
// 	// no need to specify phase used
// 	temperature 120;
// 	tank_volume 50;  
// 	thermostat_deadband 2; 
// 	heating_element_capacity 4.5 kW;
// 	water_demand demand.value;
// 	inlet_water_temperature 60;
// 	tank_UA 3.3;
// 	object recorder {
// 		name Nadine;
// 		interval 60;
// 		property is_waterheater_on, temperature, height, water_demand;
// 		file "wh.csv";
// 	}; // always put a semicolon for the curly bracket of a nested object

// }

// object recorder {
// 	name mr_recorder;
// 	parent mr_meter1;
// 	property measured_power.real, measured_current_1, measured_voltage_1; // current & voltage on split phase 1
// 	interval 600; // every 10 mins
// 	file output.csv;
// }